power-flow-agent/results/ieee14/2026-09-23/gpt-4o-mini/single_call_cot/traces/09_case14-ambiguous-035-s0.transcript.txt
==============================================================================
TRANSCRIPT  single_call:cot  |  openrouter:openai/gpt-4o-mini  |  case14  |  case14-ambiguous-035-s0  run 0
==============================================================================
date: 2026-09-23   seed: 0   difficulty: ambiguous   tool variant: load_split

[system]   (hash 23e5d9b407f9, from methods/single_call_cot/method.json prompt_files)
You are a power system power-flow analysis assistant. You help the user complete power system analysis tasks from natural-language requests.

## What you can do
You complete tasks by calling tool functions:
1. Load an IEEE standard test system (14, 30, 57, 118, 300 buses)
2. Run AC power flow
3. Modify the load at a bus and re-solve
4. Disconnect or reconnect a line and re-solve
5. Query the network status
6. Run an N-1 contingency analysis (disconnect branches one at a time and rank the worst cases)
7. Generate remedial-action suggestions (what-if load shedding or voltage adjustment) to reduce violation risk

## Key rules
- Never fabricate any numerical result. Every voltage, power, loss, or loading value must come from a tool return value.
- If a tool reports an error or a non-converged power flow, say so explicitly and do not report numbers for that state.
- If the request is ambiguous, state the interpretation you are using.
- Bus and line identifiers in the request are MATPOWER 1-based ids; pass them to the tools as given, unless the request itself states a different indexing convention for that identifier (e.g. "(0-based)"), in which case convert it to the MATPOWER 1-based id before calling any tool.
- After a network modification, re-solve before reporting any value.
- Always reply in English.

## Reply format
After each analysis, reply in this structure:
1. One-sentence summary
2. Key numbers (total load, total generation, total losses, voltage range) taken from the tool outputs
3. Violations, if any
4. Suggested next step

## Single-call mode
You are evaluated in single-call mode: the network named in the user message is already loaded. Read the request, decide which tools to call and with which arguments, and emit all tool calls in this one response. Do not ask clarifying questions, do not plan across turns, and do not fabricate numbers.

[user]
Load the 14-bus test case (case14) and set the active load at bus 5 to 3.8 MVA.

--- round 1 ---
[assistant]   (2606 in / 53 out tokens, 1.4 s)
(no text)
tool_call  set_active_load(bus_id=5, p_mw=3.8)
tool_call  run_powerflow()
[tool set_active_load]   (gate: pass)
{"case_name": "case14", "converged": true, "bus_voltages": [{"bus_id": 1, "vm_pu": 1.06, "va_deg": 0.0, "is_violation": true, "violation_type": "overvoltage"}, {"bus_id": 2, "vm_pu": 1.045, "va_deg": -4.891607618673038, "is_violation": false, "violation_type": null}, {"bus_id": 3, "vm_pu": 1.0099999999999998, "va_deg": -12.30231261701926, "is_violation": false, "violation_type": null}, {"bus_id": 4, "vm_pu": 1.017145699697823, "va_deg": -10.22086923767008, "is_violation": false, "violation_type": null}, {"bus_id": 5, "vm_pu": 1.0194658615417154, "va_deg": -8.635393145832424, "is_violation": false, "violation_type": null}, {"bus_id": 6, "vm_pu": 1.07, "va_deg": -14.105146981789316, "is_violation": true, "violation_type": "overvoltage"}, {"bus_id": 7, "vm_pu": 1.0607749769095796, "va_deg": -13.320593471585914, "is_violation": true, "violation_type": "overvoltage"}, {"bus_id": 8, "vm_pu": 1.09, "va_deg": -13.320593471585912, "is_violation": true, "violation_type": "overvoltage"}, {"bus_id": 9, "vm_pu": 1.0546538322663241, "va_deg": -14.928049609544168, "is_violation": true, "violation_type": "overvoltage"}, {"bus_id": 10, "vm_pu": 1.0501965051204882, "va_deg": -15.057209970215107, "is_violation": true, "violation_type": "overvoltage"}, {"bus_id": 11, "vm_pu": 1.05621300873791, "va_deg": -14.724319120373393, "is_violation": true, "violation_type": "overvoltage"}, {"bus_id": 12, "vm_pu": 1.0556797851081041, "va_deg": -14.938549897830917, "is_violation": true, "violation_type": "overvoltage"}, {"bus_id": 13, "vm_pu": 1.0506825132736797, "va_deg": -15.0319134786492, "is_violation": true, "violation_type": "overvoltage"}, {"bus_id": 14, "vm_pu": 1.0336041163683427, "va_deg": -16.047052740359575, "is_violation": false, "violation_type": null}], "line_flows": [{"line_id": 0, "from_bus": 1, "to_bus": 2, "p_from_mw": 154.1324796469606, "q_from_mvar": -19.759283894364124, "loading_percent": 1.4807876531393565, "is_violation": false}, {"line_id": 1, "from_bus": 1, "to_bus": 5, "p_from_mw": 74.37850009241124, "q_from_mvar": 3.9745299748093696, "loading_percent": 0.7105963784383866, "is_violation": false}, {"line_id": 2, "from_bus": 2, "to_bus": 3, "p_from_mw": 70.24884880713424, "q_from_mvar": 3.8625209452376885, "loading_percent": 0.6811739050992799, "is_violation": false}, {"line_id": 3, "from_bus": 2, "to_bus": 4, "p_from_mw": 56.18731167799442, "q_from_mvar": -1.2598737993423694, "loading_percent": 0.543245225633341, "is_violation": false}, {"line_id": 4, "from_bus": 2, "to_bus": 5, "p_from_mw": 41.05560126489678, "q_from_mvar": 1.3172824315833405, "loading_percent": 0.3986761641192342, "is_violation": false}, {"line_id": 5, "from_bus": 3, "to_bus": 4, "p_from_mw": -20.21157421399766, "q_from_mvar": 3.4425774288966227, "loading_percent": 0.20741629899153877, "is_violation": false}, {"line_id": 6, "from_bus": 4, "to_bus": 5, "p_from_mw": -63.252718037441625, "q_from_mvar": 15.391305037536377, "loading_percent": 0.646475089820966, "is_violation": false}, {"line_id": 7, "from_bus": 6, "to_bus": 11, "p_from_mw": 7.896990470633596, "q_from_mvar": 3.678989027292185, "loading_percent": 0.0822421642840743, "is_violation": false}, {"line_id": 8, "from_bus": 6, "to_bus": 12, "p_from_mw": 7.574472296857353, "q_from_mvar": 2.3972241930362475, "loading_percent": 0.0750001555660032, "is_violation": false}, {"line_id": 9, "from_bus": 6, "to_bus": 13, "p_from_mw": 17.54808078543145, "q_from_mvar": 7.068949867894705, "loading_percent": 0.1785932443096146, "is_violation": false}, {"line_id": 10, "from_bus": 9, "to_bus": 10, "p_from_mw": 4.423476574168906, "q_from_mvar": 3.901353270411778, "loading_percent": 0.0564895016014563, "is_violation": false}, {"line_id": 11, "from_bus": 9, "to_bus": 14, "p_from_mw": 9.639315889608373, "q_from_mvar": 3.7560178553606667, "loading_percent": 0.09908219609170883, "is_violation": false}, {"line_id": 12, "from_bus": 10, "to_bus": 11, "p_from_mw": -4.022457795326616, "q_from_mvar": -1.5615986760833476, "loading_percent": 0.04150205296067339, "is_violation": false}, {"line_id": 13, "from_bus": 12, "to_bus": 13, "p_from_mw": 1.720481889965256, "q_from_mvar": 0.7384945267601742, "loading_percent": 0.017914445888890386, "is_violation": false}, {"line_id": 14, "from_bus": 13, "to_bus": 14, "p_from_mw": 6.5135983549075185, "q_from_mvar": 2.00584067242026, "loading_percent": 0.0655221055179571, "is_violation": false}, {"line_id": 100000, "from_bus": 4, "to_bus": 7, "p_from_mw": 28.52729292919162, "q_from_mvar": -9.547190418531061, "loading_percent": 0.29874125343911295, "is_violation": false}, {"line_id": 100001, "from_bus": 4, "to_bus": 9, "p_from_mw": 16.334411973358947, "q_from_mvar": -0.26623135158461064, "loading_percent": 0.16223435280285062, "is_violation": false}, {"line_id": 100002, "from_bus": 5, "to_bus": 6, "p_from_mw": 44.26809457805208, "q_from_mvar": 12.465212399184152, "loading_percent": 0.45567163774741837, "is_violation": false}, {"line_id": 100003, "from_bus": 7, "to_bus": 8, "p_from_mw": -3.305282600154589e-14, "q_from_mvar": -17.599303544662423, "loading_percent": 0.16758572434776728, "is_violation": false}, {"line_id": 100004, "from_bus": 7, "to_bus": 9, "p_from_mw": 28.527292928839955, "q_from_mvar": 6.302532074152594, "loading_percent": 0.2781957653834013, "is_violation": false}], "total_generation_mw": 265.56148109448424, "total_load_mw": 252.63962899664577, "total_loss_mw": 12.921852103778889, "voltage_violations": [{"bus_id": 1, "vm_pu": 1.06, "va_deg": 0.0, "is_violation": true, "violation_type": "overvoltage"}, {"bus_id": 6, "vm_pu": 1.07, "va_deg": -14.105146981789316, "is_violation": true, "violation_type": "overvoltage"}, {"bus_id": 7, "vm_pu": 1.0607749769095796, "va_deg": -13.320593471585914, "is_violation": true, "violation_type": "overvoltage"}, {"bus_id": 8, "vm_pu": 1.09, "va_deg": -13.320593471585912, "is_violation": true, "violation_type": "overvoltage"}, {"bus_id": 9, "vm_pu": 1.0546538322663241, "va_deg": -14.928049609544168, "is_violation": true, "violation_type": "overvoltage"}, {"bus_id": 10, "vm_pu": 1.0501965051204882, "va_deg": -15.057209970215107, "is_violation": true, "violation_type": "overvoltage"}, {"bus_id": 11, "vm_pu": 1.05621300873791, "va_deg": -14.724319120373393, "is_violation": true, "violation_type": "overvoltage"}, {"bus_id": 12, "vm_pu": 1.0556797851081041, "va_deg": -14.938549897830917, "is_violation": true, "violation_type": "overvoltage"}, {"bus_id": 13, "vm_pu": 1.0506825132736797, "va_deg": -15.0319134786492, "is_violation": true, "violation_type": "overvoltage"}], "thermal_violations": [], "summary_text": "", "solver_backend": "pandapower", "llm_prompt": null, "llm_response": null, "resolved_bus_id": 5, "assumption": "reactive load at this bus is unchanged from its present value"}
[tool run_powerflow]   (gate: pass)
{"case_name": "case14", "converged": true, "bus_voltages": [{"bus_id": 1, "vm_pu": 1.06, "va_deg": 0.0, "is_violation": true, "violation_type": "overvoltage"}, {"bus_id": 2, "vm_pu": 1.045, "va_deg": -4.891607618673038, "is_violation": false, "violation_type": null}, {"bus_id": 3, "vm_pu": 1.0099999999999998, "va_deg": -12.30231261701926, "is_violation": false, "violation_type": null}, {"bus_id": 4, "vm_pu": 1.017145699697823, "va_deg": -10.22086923767008, "is_violation": false, "violation_type": null}, {"bus_id": 5, "vm_pu": 1.0194658615417154, "va_deg": -8.635393145832424, "is_violation": false, "violation_type": null}, {"bus_id": 6, "vm_pu": 1.07, "va_deg": -14.105146981789316, "is_violation": true, "violation_type": "overvoltage"}, {"bus_id": 7, "vm_pu": 1.0607749769095796, "va_deg": -13.320593471585914, "is_violation": true, "violation_type": "overvoltage"}, {"bus_id": 8, "vm_pu": 1.09, "va_deg": -13.320593471585912, "is_violation": true, "violation_type": "overvoltage"}, {"bus_id": 9, "vm_pu": 1.0546538322663241, "va_deg": -14.928049609544168, "is_violation": true, "violation_type": "overvoltage"}, {"bus_id": 10, "vm_pu": 1.0501965051204882, "va_deg": -15.057209970215107, "is_violation": true, "violation_type": "overvoltage"}, {"bus_id": 11, "vm_pu": 1.05621300873791, "va_deg": -14.724319120373393, "is_violation": true, "violation_type": "overvoltage"}, {"bus_id": 12, "vm_pu": 1.0556797851081041, "va_deg": -14.938549897830917, "is_violation": true, "violation_type": "overvoltage"}, {"bus_id": 13, "vm_pu": 1.0506825132736797, "va_deg": -15.0319134786492, "is_violation": true, "violation_type": "overvoltage"}, {"bus_id": 14, "vm_pu": 1.0336041163683427, "va_deg": -16.047052740359575, "is_violation": false, "violation_type": null}], "line_flows": [{"line_id": 0, "from_bus": 1, "to_bus": 2, "p_from_mw": 154.1324796469606, "q_from_mvar": -19.759283894364124, "loading_percent": 1.4807876531393565, "is_violation": false}, {"line_id": 1, "from_bus": 1, "to_bus": 5, "p_from_mw": 74.37850009241124, "q_from_mvar": 3.9745299748093696, "loading_percent": 0.7105963784383866, "is_violation": false}, {"line_id": 2, "from_bus": 2, "to_bus": 3, "p_from_mw": 70.24884880713424, "q_from_mvar": 3.8625209452376885, "loading_percent": 0.6811739050992799, "is_violation": false}, {"line_id": 3, "from_bus": 2, "to_bus": 4, "p_from_mw": 56.18731167799442, "q_from_mvar": -1.2598737993423694, "loading_percent": 0.543245225633341, "is_violation": false}, {"line_id": 4, "from_bus": 2, "to_bus": 5, "p_from_mw": 41.05560126489678, "q_from_mvar": 1.3172824315833405, "loading_percent": 0.3986761641192342, "is_violation": false}, {"line_id": 5, "from_bus": 3, "to_bus": 4, "p_from_mw": -20.21157421399766, "q_from_mvar": 3.4425774288966227, "loading_percent": 0.20741629899153877, "is_violation": false}, {"line_id": 6, "from_bus": 4, "to_bus": 5, "p_from_mw": -63.252718037441625, "q_from_mvar": 15.391305037536377, "loading_percent": 0.646475089820966, "is_violation": false}, {"line_id": 7, "from_bus": 6, "to_bus": 11, "p_from_mw": 7.896990470633596, "q_from_mvar": 3.678989027292185, "loading_percent": 0.0822421642840743, "is_violation": false}, {"line_id": 8, "from_bus": 6, "to_bus": 12, "p_from_mw": 7.574472296857353, "q_from_mvar": 2.3972241930362475, "loading_percent": 0.0750001555660032, "is_violation": false}, {"line_id": 9, "from_bus": 6, "to_bus": 13, "p_from_mw": 17.54808078543145, "q_from_mvar": 7.068949867894705, "loading_percent": 0.1785932443096146, "is_violation": false}, {"line_id": 10, "from_bus": 9, "to_bus": 10, "p_from_mw": 4.423476574168906, "q_from_mvar": 3.901353270411778, "loading_percent": 0.0564895016014563, "is_violation": false}, {"line_id": 11, "from_bus": 9, "to_bus": 14, "p_from_mw": 9.639315889608373, "q_from_mvar": 3.7560178553606667, "loading_percent": 0.09908219609170883, "is_violation": false}, {"line_id": 12, "from_bus": 10, "to_bus": 11, "p_from_mw": -4.022457795326616, "q_from_mvar": -1.5615986760833476, "loading_percent": 0.04150205296067339, "is_violation": false}, {"line_id": 13, "from_bus": 12, "to_bus": 13, "p_from_mw": 1.720481889965256, "q_from_mvar": 0.7384945267601742, "loading_percent": 0.017914445888890386, "is_violation": false}, {"line_id": 14, "from_bus": 13, "to_bus": 14, "p_from_mw": 6.5135983549075185, "q_from_mvar": 2.00584067242026, "loading_percent": 0.0655221055179571, "is_violation": false}, {"line_id": 100000, "from_bus": 4, "to_bus": 7, "p_from_mw": 28.52729292919162, "q_from_mvar": -9.547190418531061, "loading_percent": 0.29874125343911295, "is_violation": false}, {"line_id": 100001, "from_bus": 4, "to_bus": 9, "p_from_mw": 16.334411973358947, "q_from_mvar": -0.26623135158461064, "loading_percent": 0.16223435280285062, "is_violation": false}, {"line_id": 100002, "from_bus": 5, "to_bus": 6, "p_from_mw": 44.26809457805208, "q_from_mvar": 12.465212399184152, "loading_percent": 0.45567163774741837, "is_violation": false}, {"line_id": 100003, "from_bus": 7, "to_bus": 8, "p_from_mw": -3.305282600154589e-14, "q_from_mvar": -17.599303544662423, "loading_percent": 0.16758572434776728, "is_violation": false}, {"line_id": 100004, "from_bus": 7, "to_bus": 9, "p_from_mw": 28.527292928839955, "q_from_mvar": 6.302532074152594, "loading_percent": 0.2781957653834013, "is_violation": false}], "total_generation_mw": 265.56148109448424, "total_load_mw": 252.63962899664577, "total_loss_mw": 12.921852103778889, "voltage_violations": [{"bus_id": 1, "vm_pu": 1.06, "va_deg": 0.0, "is_violation": true, "violation_type": "overvoltage"}, {"bus_id": 6, "vm_pu": 1.07, "va_deg": -14.105146981789316, "is_violation": true, "violation_type": "overvoltage"}, {"bus_id": 7, "vm_pu": 1.0607749769095796, "va_deg": -13.320593471585914, "is_violation": true, "violation_type": "overvoltage"}, {"bus_id": 8, "vm_pu": 1.09, "va_deg": -13.320593471585912, "is_violation": true, "violation_type": "overvoltage"}, {"bus_id": 9, "vm_pu": 1.0546538322663241, "va_deg": -14.928049609544168, "is_violation": true, "violation_type": "overvoltage"}, {"bus_id": 10, "vm_pu": 1.0501965051204882, "va_deg": -15.057209970215107, "is_violation": true, "violation_type": "overvoltage"}, {"bus_id": 11, "vm_pu": 1.05621300873791, "va_deg": -14.724319120373393, "is_violation": true, "violation_type": "overvoltage"}, {"bus_id": 12, "vm_pu": 1.0556797851081041, "va_deg": -14.938549897830917, "is_violation": true, "violation_type": "overvoltage"}, {"bus_id": 13, "vm_pu": 1.0506825132736797, "va_deg": -15.0319134786492, "is_violation": true, "violation_type": "overvoltage"}], "thermal_violations": [], "summary_text": "", "solver_backend": "pandapower", "llm_prompt": null, "llm_response": null}

--- round 2 ---
[assistant final]   (7605 in / 127 out tokens, 2.3 s)
The power flow analysis has been successfully completed after modifying the load at bus 5 to 3.8 MW.

- Total load: 252.64 MW
- Total generation: 265.56 MW
- Total losses: 12.92 MW
- Voltage range: 1.0336 to 1.09 pu

Violations:
- Overvoltage violations at buses 1, 6, 7, 8, 9, 10, 11, 12, and 13.

Suggested next step: Consider running a contingency analysis or recommending remedial actions to address the voltage violations.
